Version 4
SHEET 1 2756 696
WIRE 752 -208 576 -208
WIRE 1024 -208 880 -208
WIRE 2384 -80 2048 -80
WIRE 1920 -48 1808 -48
WIRE 2240 -16 2048 -16
WIRE 2240 64 2240 -16
WIRE 2384 64 2384 -80
WIRE 368 112 16 112
WIRE 576 112 576 -208
WIRE 576 112 432 112
WIRE 752 112 576 112
WIRE 992 112 880 112
WIRE 1248 112 1072 112
WIRE 1488 112 1248 112
WIRE 1808 112 1808 -48
WIRE 1808 112 1616 112
WIRE 1984 112 1984 32
WIRE 16 192 16 112
WIRE 576 192 576 112
WIRE 1248 192 1248 112
WIRE 2240 192 2240 144
WIRE 2384 192 2384 144
WIRE 1984 256 1984 192
WIRE 16 336 16 272
WIRE 576 336 576 272
WIRE 1248 336 1248 256
WIRE 384 432 16 432
WIRE 640 432 464 432
WIRE 752 432 640 432
WIRE 992 432 880 432
WIRE 1248 432 1072 432
WIRE 1488 432 1248 432
WIRE 1728 432 1616 432
WIRE 1984 432 1808 432
WIRE 2304 432 1984 432
WIRE 2752 432 2512 432
WIRE 16 512 16 432
WIRE 640 512 640 432
WIRE 1248 512 1248 432
WIRE 1984 512 1984 432
WIRE 16 656 16 592
WIRE 640 656 640 576
WIRE 1248 656 1248 576
WIRE 1984 656 1984 576
FLAG 16 336 0
FLAG 576 336 0
FLAG 1248 336 0
FLAG 16 656 0
FLAG 1248 656 0
FLAG 640 656 0
FLAG 1984 656 0
FLAG 1984 256 0
FLAG 2240 192 0
FLAG 2384 192 0
SYMBOL voltage 16 176 R0
WINDOW 123 0 0 Left 0
WINDOW 39 0 0 Left 0
SYMATTR InstName V1
SYMATTR Value PULSE(0 1 10n 10p 10p 1)
SYMBOL cap 432 96 R90
WINDOW 0 0 32 VBottom 2
WINDOW 3 32 32 VTop 2
SYMATTR InstName C1
SYMATTR Value 10p
SYMBOL res 560 176 R0
SYMATTR InstName R1
SYMATTR Value 50
SYMBOL ideal_buffer 816 112 R0
SYMATTR InstName X1
SYMBOL res 1088 96 R90
WINDOW 0 0 56 VBottom 2
WINDOW 3 32 56 VTop 2
SYMATTR InstName R2
SYMATTR Value 50
SYMBOL cap 1264 256 R180
WINDOW 0 24 56 Left 2
WINDOW 3 24 8 Left 2
SYMATTR InstName C2
SYMATTR Value 200p
SYMBOL voltage 16 496 R0
WINDOW 123 0 0 Left 0
WINDOW 39 0 0 Left 0
SYMATTR InstName V2
SYMATTR Value PULSE(0 1 10n 10p 10p 100p)
SYMBOL res 1088 416 R90
WINDOW 0 0 56 VBottom 2
WINDOW 3 32 56 VTop 2
SYMATTR InstName R4
SYMATTR Value 50
SYMBOL cap 1264 576 R180
WINDOW 0 24 56 Left 2
WINDOW 3 24 8 Left 2
SYMATTR InstName C4
SYMATTR Value 100p
SYMBOL res 480 416 R90
WINDOW 0 0 56 VBottom 2
WINDOW 3 32 56 VTop 2
SYMATTR InstName R3
SYMATTR Value 50
SYMBOL cap 656 576 R180
WINDOW 0 24 56 Left 2
WINDOW 3 24 8 Left 2
SYMATTR InstName C3
SYMATTR Value 100p
SYMBOL ideal_buffer 816 432 R0
SYMATTR InstName X2
SYMBOL res 1824 416 R90
WINDOW 0 0 56 VBottom 2
WINDOW 3 32 56 VTop 2
SYMATTR InstName R5
SYMATTR Value 50
SYMBOL cap 2000 576 R180
WINDOW 0 24 56 Left 2
WINDOW 3 24 8 Left 2
SYMATTR InstName C5
SYMATTR Value 100p
SYMBOL ideal_buffer 1552 432 R0
SYMATTR InstName X3
SYMBOL analog_delay 2400 432 R0
SYMATTR InstName X4
SYMBOL ideal_amux 1984 -64 M0
SYMATTR InstName X5
SYMBOL voltage 1984 96 M0
WINDOW 123 0 0 Left 0
WINDOW 39 0 0 Left 0
SYMATTR InstName V3
SYMATTR Value PULSE(0 1 20n 1n 1n 10n)
SYMBOL ideal_buffer 1552 112 R0
SYMATTR InstName X6
SYMBOL res 2224 48 R0
SYMATTR InstName R6
SYMATTR Value 1k
SYMBOL res 2368 48 R0
SYMATTR InstName R7
SYMATTR Value 1k
SYMBOL ideal_int 816 -208 R0
SYMATTR InstName X7
TEXT -16 680 Left 2 !.tran 100n
