Version 4
SHEET 1 1880 680
WIRE 64 -208 -144 -208
WIRE 160 -208 64 -208
WIRE 272 -208 240 -208
WIRE 272 -128 272 -208
WIRE -80 64 -288 64
WIRE -32 64 -80 64
WIRE 544 64 176 64
WIRE 688 64 624 64
WIRE 720 64 688 64
WIRE 176 144 176 64
WIRE 720 160 720 64
WIRE 176 304 176 224
WIRE 272 304 272 -48
WIRE 272 304 176 304
WIRE 368 304 272 304
WIRE 720 304 720 224
WIRE 720 304 368 304
WIRE 368 384 368 304
WIRE 400 384 368 384
WIRE 432 384 400 384
FLAG -80 64 in
FLAG 688 64 out
FLAG 64 -208 vcc
FLAG 400 384 vee
SYMBOL bv 176 128 R0
WINDOW 3 -803 133 Left 2
SYMATTR InstName B1
SYMATTR Value V=(V(vcc)-V(vee))   *(  (V(in)-V(vee)) < (  (V(vcc)-V(vee))   /2))
SYMBOL res 640 48 R90
WINDOW 0 0 56 VBottom 2
WINDOW 3 32 56 VTop 2
SYMATTR InstName R1
SYMATTR Value 0.1
SYMBOL cap 704 160 R0
SYMATTR InstName C1
SYMATTR Value 1n
SYMBOL voltage 272 -144 R0
SYMATTR InstName V1
SYMATTR Value 1
SYMBOL res 256 -224 R90
WINDOW 0 0 56 VBottom 2
WINDOW 3 32 56 VTop 2
SYMATTR InstName R2
SYMATTR Value 100Meg
LINE Normal 0 176 0 -48 2
LINE Normal 128 64 0 176 2
LINE Normal 0 -48 128 64 2
LINE Normal 0 -48 0 -48 2
