Version 4
SHEET 1 880 680
WIRE 32 192 -32 192
WIRE 80 192 32 192
WIRE 160 192 144 192
WIRE 256 192 240 192
WIRE 448 192 352 192
WIRE 480 192 448 192
WIRE 640 192 544 192
WIRE 720 192 640 192
WIRE 256 224 208 224
WIRE 400 224 352 224
WIRE 448 224 448 192
WIRE 208 336 208 224
WIRE 400 336 400 224
WIRE 448 336 448 304
FLAG 32 192 in
FLAG 640 192 out
FLAG 400 336 0
FLAG 208 336 0
FLAG 448 336 0
SYMBOL Digital\\buf1 80 128 R0
SYMATTR InstName A3
SYMBOL Digital\\buf1 480 128 R0
SYMATTR InstName A1
SYMBOL res 432 208 R0
SYMATTR InstName R1
SYMATTR Value 50
SYMBOL tline 304 208 R0
SYMATTR InstName T1
SYMATTR Value Td={Td} Z0=50
SYMBOL res 256 176 R90
WINDOW 0 0 56 VBottom 2
WINDOW 3 32 56 VTop 2
SYMATTR InstName R2
SYMATTR Value 1
