Version 4
SHEET 1 8388 4168
WIRE 4624 3088 4336 3088
WIRE 4752 3088 4624 3088
WIRE 5056 3088 4880 3088
WIRE 5360 3088 5184 3088
WIRE 5664 3088 5488 3088
WIRE 5968 3088 5792 3088
WIRE 6272 3088 6096 3088
WIRE 6576 3088 6400 3088
WIRE 6880 3088 6704 3088
WIRE 7184 3088 7008 3088
WIRE 7488 3088 7312 3088
WIRE 7792 3088 7616 3088
WIRE 7792 3248 7792 3088
WIRE 7792 3248 4656 3248
WIRE 4656 3328 4656 3248
WIRE 4752 3328 4656 3328
WIRE 5056 3328 4880 3328
WIRE 5360 3328 5184 3328
WIRE 5664 3328 5488 3328
WIRE 5968 3328 5792 3328
WIRE 6272 3328 6096 3328
WIRE 6576 3328 6400 3328
WIRE 6880 3328 6704 3328
WIRE 7184 3328 7008 3328
WIRE 7488 3328 7312 3328
WIRE 7792 3328 7616 3328
WIRE 7792 3488 7792 3328
WIRE 7792 3488 4656 3488
WIRE 4656 3568 4656 3488
WIRE 4752 3568 4656 3568
WIRE 5056 3568 4880 3568
WIRE 5360 3568 5184 3568
WIRE 5664 3568 5488 3568
WIRE 5968 3568 5792 3568
WIRE 6272 3568 6096 3568
WIRE 6576 3568 6400 3568
WIRE 6880 3568 6704 3568
WIRE 7184 3568 7008 3568
WIRE 7488 3568 7312 3568
WIRE 7792 3568 7616 3568
WIRE 7792 3728 7792 3568
WIRE 7792 3728 4656 3728
WIRE 4656 3808 4656 3728
WIRE 4752 3808 4656 3808
WIRE 5056 3808 4880 3808
WIRE 5360 3808 5184 3808
WIRE 5664 3808 5488 3808
WIRE 5968 3808 5792 3808
WIRE 6272 3808 6096 3808
WIRE 6576 3808 6400 3808
WIRE 6880 3808 6704 3808
WIRE 7184 3808 7008 3808
WIRE 7488 3808 7312 3808
WIRE 7792 3808 7616 3808
WIRE 8048 3808 7888 3808
WIRE 8112 3808 8048 3808
WIRE 8304 3808 8240 3808
WIRE 8384 3808 8304 3808
WIRE 8048 3824 8048 3808
WIRE 7792 3840 7728 3840
WIRE 7952 3840 7888 3840
WIRE 7728 3920 7728 3840
WIRE 7952 3920 7952 3840
WIRE 8048 3920 8048 3904
FLAG 8304 3808 out
FLAG 4624 3088 in
FLAG 7952 3920 0
FLAG 7728 3920 0
FLAG 8048 3920 0
SYMBOL ideal_pole 4816 3088 R0
SYMATTR SpiceLine tau={single_tau}
SYMATTR InstName X1
SYMBOL ideal_pole 5120 3088 R0
SYMATTR SpiceLine tau={single_tau}
SYMATTR InstName X2
SYMBOL ideal_pole 5424 3088 R0
SYMATTR SpiceLine tau={single_tau}
SYMATTR InstName X3
SYMBOL ideal_pole 5728 3088 R0
SYMATTR SpiceLine tau={single_tau}
SYMATTR InstName X4
SYMBOL ideal_pole 6032 3088 R0
SYMATTR SpiceLine tau={single_tau}
SYMATTR InstName X5
SYMBOL ideal_pole 6336 3088 R0
SYMATTR SpiceLine tau={single_tau}
SYMATTR InstName X6
SYMBOL ideal_pole 6640 3088 R0
SYMATTR SpiceLine tau={single_tau}
SYMATTR InstName X7
SYMBOL ideal_pole 6944 3088 R0
SYMATTR SpiceLine tau={single_tau}
SYMATTR InstName X8
SYMBOL ideal_pole 7248 3088 R0
SYMATTR SpiceLine tau={single_tau}
SYMATTR InstName X9
SYMBOL ideal_pole 7552 3088 R0
SYMATTR SpiceLine tau={single_tau}
SYMATTR InstName X10
SYMBOL ideal_pole 4816 3328 R0
SYMATTR SpiceLine tau={single_tau}
SYMATTR InstName X11
SYMBOL ideal_pole 5120 3328 R0
SYMATTR SpiceLine tau={single_tau}
SYMATTR InstName X12
SYMBOL ideal_pole 5424 3328 R0
SYMATTR SpiceLine tau={single_tau}
SYMATTR InstName X13
SYMBOL ideal_pole 5728 3328 R0
SYMATTR SpiceLine tau={single_tau}
SYMATTR InstName X14
SYMBOL ideal_pole 6032 3328 R0
SYMATTR SpiceLine tau={single_tau}
SYMATTR InstName X15
SYMBOL ideal_pole 6336 3328 R0
SYMATTR SpiceLine tau={single_tau}
SYMATTR InstName X16
SYMBOL ideal_pole 6640 3328 R0
SYMATTR SpiceLine tau={single_tau}
SYMATTR InstName X17
SYMBOL ideal_pole 6944 3328 R0
SYMATTR SpiceLine tau={single_tau}
SYMATTR InstName X18
SYMBOL ideal_pole 7248 3328 R0
SYMATTR SpiceLine tau={single_tau}
SYMATTR InstName X19
SYMBOL ideal_pole 7552 3328 R0
SYMATTR SpiceLine tau={single_tau}
SYMATTR InstName X20
SYMBOL ideal_pole 4816 3568 R0
SYMATTR SpiceLine tau={single_tau}
SYMATTR InstName X31
SYMBOL ideal_pole 5120 3568 R0
SYMATTR SpiceLine tau={single_tau}
SYMATTR InstName X32
SYMBOL ideal_pole 5424 3568 R0
SYMATTR SpiceLine tau={single_tau}
SYMATTR InstName X33
SYMBOL ideal_pole 5728 3568 R0
SYMATTR SpiceLine tau={single_tau}
SYMATTR InstName X34
SYMBOL ideal_pole 6032 3568 R0
SYMATTR SpiceLine tau={single_tau}
SYMATTR InstName X35
SYMBOL ideal_pole 6336 3568 R0
SYMATTR SpiceLine tau={single_tau}
SYMATTR InstName X36
SYMBOL ideal_pole 6640 3568 R0
SYMATTR SpiceLine tau={single_tau}
SYMATTR InstName X37
SYMBOL ideal_pole 6944 3568 R0
SYMATTR SpiceLine tau={single_tau}
SYMATTR InstName X38
SYMBOL ideal_pole 7248 3568 R0
SYMATTR SpiceLine tau={single_tau}
SYMATTR InstName X39
SYMBOL ideal_pole 7552 3568 R0
SYMATTR SpiceLine tau={single_tau}
SYMATTR InstName X40
SYMBOL ideal_pole 4816 3808 R0
SYMATTR SpiceLine tau={single_tau}
SYMATTR InstName X21
SYMBOL ideal_pole 5120 3808 R0
SYMATTR SpiceLine tau={single_tau}
SYMATTR InstName X22
SYMBOL ideal_pole 5424 3808 R0
SYMATTR SpiceLine tau={single_tau}
SYMATTR InstName X23
SYMBOL ideal_pole 5728 3808 R0
SYMATTR SpiceLine tau={single_tau}
SYMATTR InstName X24
SYMBOL ideal_pole 6032 3808 R0
SYMATTR SpiceLine tau={single_tau}
SYMATTR InstName X25
SYMBOL ideal_pole 6336 3808 R0
SYMATTR SpiceLine tau={single_tau}
SYMATTR InstName X26
SYMBOL ideal_pole 6640 3808 R0
SYMATTR SpiceLine tau={single_tau}
SYMATTR InstName X27
SYMBOL ideal_pole 6944 3808 R0
SYMATTR SpiceLine tau={single_tau}
SYMATTR InstName X28
SYMBOL ideal_pole 7248 3808 R0
SYMATTR SpiceLine tau={single_tau}
SYMATTR InstName X29
SYMBOL ideal_pole 7552 3808 R0
SYMATTR SpiceLine tau={single_tau}
SYMATTR InstName X30
SYMBOL tline 7840 3824 R0
WINDOW 3 23 162 Top 2
SYMATTR Value Td={rest_delay} Z0=50
SYMATTR InstName T1
SYMBOL ideal_buffer 8176 3808 R0
SYMATTR InstName X41
SYMBOL res 8032 3808 R0
SYMATTR InstName R1
SYMATTR Value 50
TEXT 5744 2896 Left 2 !.param single_tau sigma*2*3.1416/40
TEXT 7552 4088 Left 2 !.param rest_delay   delay-2*3.14159*sigma
