Version 4
SHEET 1 888 680
WIRE -32 192 -96 192
WIRE 48 192 -32 192
WIRE 480 192 48 192
WIRE 640 192 544 192
WIRE 720 192 640 192
WIRE 480 224 432 224
WIRE 48 304 48 192
WIRE 96 304 48 304
WIRE 336 304 304 304
WIRE 432 304 432 224
WIRE 432 304 400 304
FLAG -32 192 in
FLAG 640 192 out
SYMBOL logic_delay 192 304 R0
SYMATTR SpiceLine Td=width
SYMATTR InstName X1
SYMBOL Digital\\inv 336 240 R0
SYMATTR InstName A1
SYMBOL Digital\\and 512 144 R0
SYMATTR InstName A2
