Version 4
SHEET 1 4048 680
WIRE -1184 -320 -1200 -320
WIRE -1136 -320 -1184 -320
WIRE -1056 -320 -1072 -320
WIRE -1008 -320 -1056 -320
WIRE -960 -320 -1008 -320
WIRE -672 -320 -752 -320
WIRE -512 -320 -608 -320
WIRE -224 -320 -304 -320
WIRE -64 -320 -160 -320
WIRE 224 -320 144 -320
WIRE 384 -320 288 -320
WIRE 672 -320 592 -320
WIRE 832 -320 736 -320
WIRE 1120 -320 1040 -320
WIRE 1280 -320 1184 -320
WIRE 1568 -320 1488 -320
WIRE 1728 -320 1632 -320
WIRE 2016 -320 1936 -320
WIRE 2176 -320 2080 -320
WIRE 2464 -320 2384 -320
WIRE 2624 -320 2528 -320
WIRE 2912 -320 2832 -320
WIRE 3072 -320 2976 -320
WIRE 3360 -320 3280 -320
WIRE 3488 -320 3424 -320
WIRE -672 -288 -704 -288
WIRE -224 -288 -256 -288
WIRE 224 -288 192 -288
WIRE 672 -288 640 -288
WIRE 1120 -288 1088 -288
WIRE 1568 -288 1536 -288
WIRE 2016 -288 1984 -288
WIRE 2464 -288 2432 -288
WIRE 2912 -288 2880 -288
WIRE 3360 -288 3328 -288
WIRE -1008 -224 -1008 -320
WIRE -704 -224 -704 -288
WIRE -704 -224 -1008 -224
WIRE -256 -224 -256 -288
WIRE -256 -224 -704 -224
WIRE 192 -224 192 -288
WIRE 192 -224 -256 -224
WIRE 640 -224 640 -288
WIRE 640 -224 192 -224
WIRE 1088 -224 1088 -288
WIRE 1088 -224 640 -224
WIRE 1536 -224 1536 -288
WIRE 1536 -224 1088 -224
WIRE 1984 -224 1984 -288
WIRE 1984 -224 1536 -224
WIRE 2432 -224 2432 -288
WIRE 2432 -224 1984 -224
WIRE 2880 -224 2880 -288
WIRE 2880 -224 2432 -224
WIRE 3328 -224 3328 -288
WIRE 3328 -224 2880 -224
WIRE 3488 -160 3488 -320
WIRE 3488 -160 -1008 -160
WIRE -1008 -48 -1008 -160
WIRE -960 -48 -1008 -48
WIRE -672 -48 -752 -48
WIRE -512 -48 -608 -48
WIRE -224 -48 -304 -48
WIRE -64 -48 -160 -48
WIRE 224 -48 144 -48
WIRE 384 -48 288 -48
WIRE 672 -48 592 -48
WIRE 832 -48 736 -48
WIRE 1120 -48 1040 -48
WIRE 1280 -48 1184 -48
WIRE 1568 -48 1488 -48
WIRE 1728 -48 1632 -48
WIRE 2016 -48 1936 -48
WIRE 2176 -48 2080 -48
WIRE 2464 -48 2384 -48
WIRE 2624 -48 2528 -48
WIRE 2912 -48 2832 -48
WIRE 3072 -48 2976 -48
WIRE 3360 -48 3280 -48
WIRE 3664 -48 3424 -48
WIRE 3856 -48 3792 -48
WIRE 4000 -48 3920 -48
WIRE 4032 -48 4000 -48
WIRE -672 -16 -704 -16
WIRE -224 -16 -256 -16
WIRE 224 -16 192 -16
WIRE 672 -16 640 -16
WIRE 1120 -16 1088 -16
WIRE 1568 -16 1536 -16
WIRE 2016 -16 1984 -16
WIRE 2464 -16 2432 -16
WIRE 2912 -16 2880 -16
WIRE 3360 -16 3328 -16
WIRE -1056 48 -1056 -320
WIRE -704 48 -704 -16
WIRE -704 48 -1056 48
WIRE -256 48 -256 -16
WIRE -256 48 -704 48
WIRE 192 48 192 -16
WIRE 192 48 -256 48
WIRE 640 48 640 -16
WIRE 640 48 192 48
WIRE 1088 48 1088 -16
WIRE 1088 48 640 48
WIRE 1536 48 1536 -16
WIRE 1536 48 1088 48
WIRE 1984 48 1984 -16
WIRE 1984 48 1536 48
WIRE 2432 48 2432 -16
WIRE 2432 48 1984 48
WIRE 2880 48 2880 -16
WIRE 2880 48 2432 48
WIRE 3328 48 3328 -16
WIRE 3328 48 2880 48
FLAG -1184 -320 in
FLAG 4000 -48 out
SYMBOL Digital\\buf1 -1136 -384 R0
SYMATTR InstName A3
SYMBOL logic_delay -864 -320 R0
SYMATTR InstName X1
SYMATTR SpiceLine Td={sdly}
SYMBOL Digital\\or -640 -368 R0
SYMATTR InstName A2
SYMBOL logic_delay -416 -320 R0
SYMATTR InstName X2
SYMATTR SpiceLine Td={sdly}
SYMBOL Digital\\or -192 -368 R0
SYMATTR InstName A4
SYMBOL logic_delay 32 -320 R0
SYMATTR InstName X3
SYMATTR SpiceLine Td={sdly}
SYMBOL Digital\\or 256 -368 R0
SYMATTR InstName A5
SYMBOL logic_delay 480 -320 R0
SYMATTR InstName X4
SYMATTR SpiceLine Td={sdly}
SYMBOL Digital\\or 704 -368 R0
SYMATTR InstName A6
SYMBOL logic_delay 928 -320 R0
SYMATTR InstName X5
SYMATTR SpiceLine Td={sdly}
SYMBOL Digital\\or 1152 -368 R0
SYMATTR InstName A7
SYMBOL logic_delay 1376 -320 R0
SYMATTR InstName X6
SYMATTR SpiceLine Td={sdly}
SYMBOL Digital\\or 1600 -368 R0
SYMATTR InstName A8
SYMBOL logic_delay 1824 -320 R0
SYMATTR InstName X7
SYMATTR SpiceLine Td={sdly}
SYMBOL Digital\\or 2048 -368 R0
SYMATTR InstName A9
SYMBOL logic_delay 2272 -320 R0
SYMATTR InstName X8
SYMATTR SpiceLine Td={sdly}
SYMBOL Digital\\or 2496 -368 R0
SYMATTR InstName A10
SYMBOL ideal_pole 3728 -48 R0
SYMATTR SpiceLine tau=.1n
SYMATTR InstName X9
SYMBOL Digital\\buf1 3856 -112 R0
SYMATTR InstName A11
SYMBOL logic_delay 2720 -320 R0
SYMATTR InstName X10
SYMATTR SpiceLine Td={sdly}
SYMBOL Digital\\or 2944 -368 R0
SYMATTR InstName A12
SYMBOL logic_delay 3168 -320 R0
SYMATTR InstName X11
SYMATTR SpiceLine Td={sdly}
SYMBOL Digital\\or 3392 -368 R0
SYMATTR InstName A13
SYMBOL logic_delay -864 -48 R0
SYMATTR InstName X12
SYMATTR SpiceLine Td={sdly}
SYMBOL Digital\\or -640 -96 R0
SYMATTR InstName A14
SYMBOL logic_delay -416 -48 R0
SYMATTR InstName X13
SYMATTR SpiceLine Td={sdly}
SYMBOL Digital\\or -192 -96 R0
SYMATTR InstName A15
SYMBOL logic_delay 32 -48 R0
SYMATTR InstName X14
SYMATTR SpiceLine Td={sdly}
SYMBOL Digital\\or 256 -96 R0
SYMATTR InstName A16
SYMBOL logic_delay 480 -48 R0
SYMATTR InstName X15
SYMATTR SpiceLine Td={sdly}
SYMBOL Digital\\or 704 -96 R0
SYMATTR InstName A17
SYMBOL logic_delay 928 -48 R0
SYMATTR InstName X16
SYMATTR SpiceLine Td={sdly}
SYMBOL Digital\\or 1152 -96 R0
SYMATTR InstName A18
SYMBOL logic_delay 1376 -48 R0
SYMATTR InstName X17
SYMATTR SpiceLine Td={sdly}
SYMBOL Digital\\or 1600 -96 R0
SYMATTR InstName A19
SYMBOL logic_delay 1824 -48 R0
SYMATTR InstName X18
SYMATTR SpiceLine Td={sdly}
SYMBOL Digital\\or 2048 -96 R0
SYMATTR InstName A20
SYMBOL logic_delay 2272 -48 R0
SYMATTR InstName X19
SYMATTR SpiceLine Td={sdly}
SYMBOL Digital\\or 2496 -96 R0
SYMATTR InstName A21
SYMBOL logic_delay 2720 -48 R0
SYMATTR InstName X20
SYMATTR SpiceLine Td={sdly}
SYMBOL Digital\\or 2944 -96 R0
SYMATTR InstName A22
SYMBOL logic_delay 3168 -48 R0
SYMATTR InstName X21
SYMATTR SpiceLine Td={sdly}
SYMBOL Digital\\or 3392 -96 R0
SYMATTR InstName A23
TEXT 856 -488 Left 2 !.param sdly Td/20
